Version 4
SHEET 1 1588 988
WIRE -112 -288 -112 -304
WIRE -112 -288 -176 -288
WIRE -112 -272 -112 -288
WIRE 800 -240 800 -256
WIRE 864 -240 800 -240
WIRE 800 -224 800 -240
WIRE 704 -112 448 -112
WIRE 864 -112 864 -240
WIRE 864 -112 800 -112
WIRE 448 -16 448 -112
WIRE 480 -16 448 -16
WIRE 768 -16 640 -16
WIRE 800 -16 800 -112
WIRE 848 -16 800 -16
WIRE 1088 0 912 0
WIRE 768 16 768 -16
WIRE 848 16 768 16
WIRE 480 32 336 32
WIRE 704 32 704 -112
WIRE 704 32 656 32
WIRE 112 48 -48 48
WIRE 208 48 112 48
WIRE 272 48 208 48
WIRE 208 96 208 48
WIRE 800 112 800 -16
WIRE 848 112 800 112
WIRE -48 128 -48 48
WIRE 1088 128 912 128
WIRE 416 144 288 144
WIRE 704 144 704 32
WIRE 848 144 704 144
WIRE 416 160 416 144
WIRE 288 192 288 144
WIRE 288 192 256 192
WIRE 208 224 208 176
WIRE 256 224 256 192
WIRE 256 224 208 224
WIRE 272 224 256 224
WIRE 416 240 336 240
WIRE 1376 336 1312 336
WIRE 1504 336 1456 336
WIRE 1312 432 1312 336
WIRE 1376 432 1312 432
WIRE 1504 432 1504 336
WIRE 1504 432 1440 432
WIRE 1008 448 976 448
WIRE 1136 448 1088 448
WIRE 304 496 128 496
WIRE 128 576 128 496
WIRE 176 576 128 576
WIRE 752 576 640 576
WIRE 848 576 848 560
WIRE 848 576 816 576
WIRE 880 576 848 576
WIRE 976 576 976 448
WIRE 976 576 960 576
WIRE 1008 576 976 576
WIRE 304 592 304 496
WIRE 304 592 240 592
WIRE 352 592 304 592
WIRE 464 592 432 592
WIRE 640 592 640 576
WIRE 640 592 464 592
WIRE 848 592 848 576
WIRE 1136 592 1136 448
WIRE 1136 592 1072 592
WIRE 1184 592 1136 592
WIRE 1312 592 1312 432
WIRE 1312 592 1264 592
WIRE 1376 592 1312 592
WIRE 64 608 64 528
WIRE 176 608 64 608
WIRE 192 608 176 608
WIRE 1504 608 1504 432
WIRE 1504 608 1440 608
WIRE 464 656 464 592
WIRE 464 656 352 656
WIRE 352 736 128 736
WIRE 128 816 128 736
WIRE 176 816 128 816
WIRE 352 832 352 736
WIRE 352 832 240 832
WIRE 64 848 64 800
WIRE 176 848 64 848
FLAG -48 208 0
FLAG -112 -192 0
FLAG -176 -288 v1.65
FLAG 272 16 v1.65
FLAG -112 -384 v3.3
FLAG 304 0 v3.3
FLAG 304 64 0
FLAG 880 32 0
FLAG 880 -32 v3.3
FLAG 800 -144 0
FLAG 800 -336 v1.65
FLAG 304 272 0
FLAG 304 208 v3.3
FLAG 272 256 v1.65
FLAG 112 48 signal
FLAG 416 240 inv_signal
FLAG 64 704 0
FLAG 64 944 0
FLAG -16 528 signal
FLAG 208 864 0
FLAG 208 624 0
FLAG -16 800 inv_signal
FLAG 880 160 0
FLAG 880 96 v3.3
FLAG 208 560 v3.3
FLAG 208 800 v3.3
FLAG 16 688 SW_signal
FLAG 1088 0 SW_signal
FLAG 1088 128 SW_inv_signal
FLAG 16 928 SW_inv_signal
FLAG 1040 624 0
FLAG 1040 560 v3.3
FLAG 848 672 0
FLAG 848 480 v3.3
FLAG 1008 608 v1.65
FLAG 1376 624 v1.65
FLAG 1408 640 0
FLAG 1408 576 v3.3
SYMBOL voltage -48 112 R0
WINDOW 123 24 124 Left 2
WINDOW 39 0 0 Left 0
SYMATTR Value2 AC 1 0
SYMATTR InstName V2
SYMATTR Value SINE(1.65 1 100)
SYMBOL voltage -112 -400 R0
SYMATTR InstName V1
SYMATTR Value 1.65
SYMBOL voltage -112 -288 R0
SYMATTR InstName V3
SYMATTR Value 1.65
SYMBOL Comparators\\LT1720 304 -32 R0
SYMATTR InstName U1
SYMBOL Digital\\dflop 560 -64 R0
SYMATTR InstName A1
SYMBOL Comparators\\LT1720 880 -64 R0
SYMATTR InstName U2
SYMBOL res 784 -240 R0
SYMATTR InstName R1
SYMATTR Value 10k
SYMBOL res 784 -352 R0
SYMATTR InstName R2
SYMATTR Value 10k
SYMBOL Opamps\\AD824 304 176 R0
SYMATTR InstName U3
SYMBOL res 192 80 R0
SYMATTR InstName R3
SYMATTR Value 10k
SYMBOL res 400 144 R0
SYMATTR InstName R4
SYMATTR Value 10k
SYMBOL nmos 16 608 R0
SYMATTR InstName M1
SYMBOL nmos 16 848 R0
SYMATTR InstName M2
SYMBOL res 80 512 R90
WINDOW 0 0 56 VBottom 2
WINDOW 3 32 56 VTop 2
SYMATTR InstName R5
SYMATTR Value 20k
SYMBOL Opamps\\AD824 208 528 R0
SYMATTR InstName U5
SYMBOL Opamps\\AD824 208 768 R0
SYMATTR InstName U6
SYMBOL res 80 784 R90
WINDOW 0 0 56 VBottom 2
WINDOW 3 32 56 VTop 2
SYMATTR InstName R6
SYMATTR Value 20k
SYMBOL res 336 640 R0
SYMATTR InstName R7
SYMATTR Value 5.11k
SYMBOL res 448 576 R90
WINDOW 0 0 56 VBottom 2
WINDOW 3 32 56 VTop 2
SYMATTR InstName R8
SYMATTR Value 5.11k
SYMBOL Comparators\\LT1720 880 64 R0
SYMATTR InstName U7
SYMBOL cap 816 560 R90
WINDOW 0 0 32 VBottom 2
WINDOW 3 32 32 VTop 2
SYMATTR InstName C1
SYMATTR Value 10µ
SYMBOL Opamps\\AD824 1040 528 R0
SYMATTR InstName U8
SYMBOL res 832 464 R0
SYMATTR InstName R9
SYMATTR Value 10k
SYMBOL res 832 576 R0
SYMATTR InstName R11
SYMATTR Value 10k
SYMBOL res 976 560 R90
WINDOW 0 0 56 VBottom 2
WINDOW 3 32 56 VTop 2
SYMATTR InstName R10
SYMATTR Value 5.11k
SYMBOL res 1104 432 R90
WINDOW 0 0 56 VBottom 2
WINDOW 3 32 56 VTop 2
SYMATTR InstName R12
SYMATTR Value 20k
SYMBOL res 1280 576 R90
WINDOW 0 0 56 VBottom 2
WINDOW 3 32 56 VTop 2
SYMATTR InstName R13
SYMATTR Value 4.75k
SYMBOL Opamps\\AD824 1408 544 R0
SYMATTR InstName U9
SYMBOL cap 1440 416 R90
WINDOW 0 0 32 VBottom 2
WINDOW 3 32 32 VTop 2
SYMATTR InstName C2
SYMATTR Value 0.047µ
SYMBOL res 1472 320 R90
WINDOW 0 0 56 VBottom 2
WINDOW 3 32 56 VTop 2
SYMATTR InstName R14
SYMATTR Value 10k
TEXT -120 296 Left 2 !.tran 0 0.5 0.3 startup
